   10

N     9.5734316224734055   2.3475033893298951  -0.8357407643261446
N     8.7547986989638069   0.1379153621547412   0.7188790746891480
C     9.0742361963734801   2.4890585229067632   0.3996762859434314
C     8.6363493237585747   1.3787894146004178   1.1524384734423117
C     9.6313122009417924   1.0789856461815210  -1.2862389051670633
C     9.1499675265600562  -0.0232709298699193  -0.5929942719789985
H     8.9073224914435478   3.5117122270920382   0.8062772800030059
H     8.3914307122651852   1.4895102932605231   2.2157332829749237
H    10.0413460822206737   0.9119170780939764  -2.2855794692859703
H     9.3215170478467204  -1.0181257885870432  -0.9805681146288063
